/*--------------------------------*- C++ -*----------------------------------*\
| =========                 |                                                 |
| \\      /  F ield         | OpenFOAM: The Open Source CFD Toolbox           |
|  \\    /   O peration     | Version:  v2406                                 |
|   \\  /    A nd           | Website:  www.openfoam.com                      |
|    \\/     M anipulation  |                                                 |
\*---------------------------------------------------------------------------*/
FoamFile
{
    version     2.0;
    format      ascii;
    class       dictionary;
    object      blockMeshDict;
}
// * * * * * * * * * * * * * * * * * * * * * * * * * * * * * * * * * * * * * //
scale 1;

vertices
(
    ( 0     0    0   )//Node 0
    ( 3150  0    0   )//Node 1
    ( 3150  1134  0   )//Node 2
    ( 0     1134  0   )//Node 3
    ( 0     0    1134)//Node 4
    ( 3150  0    1134)//Node 5
    ( 3150  1134  1134)//Node 6
    ( 0     1134  1134)//Node 7
);

blocks
(
    hex (0 1 2 3 4 5 6 7) (200 72 72) simpleGrading (1 1 1) 

);

edges
(
);

boundary
(
    outlet
    {
        type patch;
        faces
        (
           (1 2 6 5)
        );
    }
    sides
    {
        type wall;
        faces
        (
            //North
           (2 3 7 6)

            //South
            (0 1 5 4)

            //ground
            (0 3 2 1)

            //top
            (4 5 6 7)
        );
    }
    inlet
    {
        type patch;
        faces
        (
            (0 4 7 3)
        );
    }
);

mergePatchPairs
(
);


// ************************************************************************* //
