/*--------------------------------*- C++ -*----------------------------------*\
| =========                 |                                                 |
| \\      /  F ield         | OpenFOAM: The Open Source CFD Toolbox           |
|  \\    /   O peration     | Version:  v2406                                 |
|   \\  /    A nd           | Website:  www.openfoam.com                      |
|    \\/     M anipulation  |                                                 |
\*----------------------------------------------------------------------------|
|   wtActuatorFOAM:                                                           |
|                                                                             |
|    Yet another actuator library to simulate wind turbines in OpenFOAM       |
|                                                                             |
| Copyright (C) 2025 Computational Simulation Center (CSC-CONICET)--Argentina |
|                                                                             |
| This library is based on OpenFOAM: The Open Source CFD Toolbox,             |
| Copyright (C) 2011-2016 OpenFOAM Foundation,                                |
| Copyright (C) 2018-2025 OpenCFD Ltd.                                        |
\*---------------------------------------------------------------------------*/
FoamFile
{
    version     2.0;
    format      ascii;
    class       dictionary;
    location    "system";
    object      fvOptions;
}
// * * * * * * * * * * * * * * * * * * * * * * * * * * * * * * * * * * * * * //


// Define first turbine
disk0
{
    // Mandatory entries
    type            wtActuator;
    active          on;

    // Selection set
    cellSet                     actuationDisk0;
    selectionMode               cellSet;

    // Field that the source is applied to
    fieldNames                  (U);

    // Reference density for computing aerodynamical forces in incompressible cases
    density                     1.225;

    // Turbine characteristics
    diskArea                    12468.981242097889; // turbine disk area
    blades                      3;                  // number of blades
    diskPoint                   (945.0 315.0 90.0);      // turbine center point
    diskDir                     (1 0 0);            // turbine orientation (pointing backwards)
    yaw                         0.0;                // yaw angle with respect to x-axis 
                                                    // (positive counter clockwise)
                                                    // yaw == 360 self orienting disk

    // Actuator mesh nodes distribution in disk area
    actuatorMesh                rings; // [rings, lines (not yet implemented)]
    // rings actuator mesh parameters
    nodesCellsRatio             2; // aimed actuator nodes per CFD cell
    rThicknessCellsizeRatio     0.5; // Ratio ring thickness to cellSize
    
    // Actuator model used to compute aerodynamical forces [uniform, airfoil, numeric, adaptive, analytic]
    actuatorModel   uniform; // Forces computed according to uniform thrust and torque 
                             // distributions on disk area (may be corrected by tip/root factors)
    // actuatorModel   airfoil; // Forces computed according to the blade element method
    //                          // (needs detailed airfoils information, may be corrected by tip/root factors)
    // actuatorModel   numeric; // Forces computed according to the actuator disk model from van der Laan etal 
                                // (2015) doi: 10.1002/we.1816 
                                // (needs forcesRadialDistribution table with forces at each radial position 
                                //  for each wind speed, tip/root factors do not apply)
    // actuatorModel   adaptive; // Forces computed according to the actuator disk model from Navarro Diaz 
                                 // etal (2019) doi: 10.1016/j.jweia.2018.12.018
    //                           // (needs forcesRadialDistribution table with forces at each radial position
    //                           //  for each wind speed and turbine wind speed reference, 
    //                           //  tip/root factors do not apply) 
    // actuatorModel   analytic; // Forces computed according to the actuator disk model from Sørensen etal 
                                 // (2020) doi: 10.1016/j.renene.2019.09.134
                                 // (may use tip/root correction factors)

    // How to compute the undisturbed wind speed in terms of averaged disk speed [table, induction1, induction2]
    actuatorInductionModel      table; // Use wtCurvesTable to interpolate Uref from Ud
    // actuatorInductionModel      sorensen; // Use formula from Sørensen etal (2020) 
    //                                       // doi: 10.1016/j.renene.2019.09.134
    // actuatorInductionModel      analytic; // Use formula: Uref = UdDir * Ct_ / Cp_

    // tip factor when aplicable [prandtl, glauert, shen, none] defaults to none
    // tipfactor                   prandtl;  // Prandtl tip factor Betz (1919)
    // tipfactor                   glauert;  // Tip factor from Glauert (1935). doi: 10.1007/978-3-642-91487-4_3 
    //tipfactor                   shen;  // Tip factor from Shen etal (2005). doi: 10.1002/we.153

    // root factor when aplicable [glauert, sorensen, none] defaults to none
    // rootfactor                  glauert; // Root factor from Glauert (1935). doi: 10.1007/978-3-642-91487-4_3
    //rootfactor                  sorensen; // Root factor from Sørensen (2020) doi: 10.1016/j.renene.2019.09.134
    rootfactordistance          0.1;
    
    // Calibration mode to construct actuator tables 
    calibration                 false; // [true, false]
    // Calibration example
    // calibration                 true; // [true, false]
    // Uref    7; (mandatory)
    // Cp      0.45; (optional)
    // Ct      0.6; (optional)
    // omega   1; (optional)
    // pitch   0.5; (optional)
    
    UdCorrection                false; // Use Ud correction from Shapiro etal (2019) doi: 10.1002/we.2376.
    gradInterpolation           false;  // Use the gradient to extrapolate Ud to node location
    
    // Flow orientation computation
    orientationRadiusFrac       1; // Diameter of sphere (wrt maxR_) where flow direction is computed

    // Selection of reduced cellSet for actuator computations (diskCells_)
    selectRadialBoundFrac       1.15; // Diameter of sphere (wrt maxR_) where actuator cells are selected
    selectAxialBoundFrac        3;    // Distance to actuator plane (wrt minSep_) that limits actuator cells selected

    // Parameters for weighting cell velocities to compute average disk velocity 
    unifWeight                  false; // Uniform weight on every diskCells_ cell [true, false]
    axialWeight                 true;  // Weighting with distance to actuator plane (gaussian) [true, false]
    sigmaAxialWeightFrac        2.0;   // Width of axialWeight gussian (wrt minSep_)
    sphereWeight                false; // Weighting with distance to actuator center (gaussian) [true, false]
    maxRweight                  1.0;   // Max radial distance where cells are considered for weighting (wrt maxR_)
    sigmaSphereWeightFrac       0.5;   // Width of sphereWeight Gaussian (wrt maxR_)

    // Force distribution parameters distributing nodal forces according to cells distance to node
    sphereTolDiskFrac           1.15;    // Max radial distance where cells are considered for force smearing wrt maxR_
    distribGaussianCoeffs       (1 1 1); // Width of Gaussians for force smearing wrt minSep_ (n,t,r)
    
    // Input tables
    #include "./constant/wtCurvesTable.txt" // Turbine characteristics table
    #include "./constant/blade_NREL5MW.txt" // Blade characteristics table (Only needed for airfoil actuatorModel)
    #include "./constant/forcesRadialDistribution.txt" // Forces distribution table (Needed for numeric and adaptive
                                                       // actuatorMode)
    // Output 
    //saveLevel                   0; // no outActuators file
    saveLevel                   1; // outActuators.csv file: 
                                        // Actuator name, time [s], Uref [m/s], Ud [m/s], Cp, Ct, omega [rad/s],  
                                        // pitch [deg], Power(Uref, Cp) [W], Thrust(Uref, Ct) [N], Torque [Nm]
    //saveLevel                   2; // outActuators_extended.csv thurst and toque accumulated at nodes:
                                        // Actuator name, time [s], Thrust_actuator [N], Torque_actuator [Nm],
                                        // Thrust_nodes [N], Torque_nodes [Nm]
    saveNodeForces              false;  // Save forces computed at each node [true, false] 
                                        // If calibration = true, this should be also true
}

disk1
{
        $disk0;
        cellSet         actuationDisk1;
        diskPoint (945.0 945.0 90.0); //location of the center of the disc
}
disk2
{
        $disk0;
        cellSet         actuationDisk2;
        diskPoint (945.0 1575.0 90.0); //location of the center of the disc
}
disk3
{
        $disk0;
        cellSet         actuationDisk3;
        diskPoint (945.0 2205.0 90.0); //location of the center of the disc
}
disk4
{
        $disk0;
        cellSet         actuationDisk4;
        diskPoint (945.0 2835.0 90.0); //location of the center of the disc
}
disk5
{
        $disk0;
        cellSet         actuationDisk5;
        diskPoint (945.0 3465.0 90.0); //location of the center of the disc
}
disk6
{
        $disk0;
        cellSet         actuationDisk6;
        diskPoint (945.0 4095.0 90.0); //location of the center of the disc
}
disk7
{
        $disk0;
        cellSet         actuationDisk7;
        diskPoint (945.0 4725.0 90.0); //location of the center of the disc
}
disk8
{
        $disk0;
        cellSet         actuationDisk8;
        diskPoint (945.0 5355.0 90.0); //location of the center of the disc
}
disk9
{
        $disk0;
        cellSet         actuationDisk9;
        diskPoint (945.0 5985.0 90.0); //location of the center of the disc
}
disk10
{
        $disk0;
        cellSet         actuationDisk10;
        diskPoint (945.0 6615.0 90.0); //location of the center of the disc
}
disk11
{
        $disk0;
        cellSet         actuationDisk11;
        diskPoint (945.0 7245.0 90.0); //location of the center of the disc
}
disk12
{
        $disk0;
        cellSet         actuationDisk12;
        diskPoint (945.0 7875.0 90.0); //location of the center of the disc
}
disk13
{
        $disk0;
        cellSet         actuationDisk13;
        diskPoint (945.0 8505.0 90.0); //location of the center of the disc
}
disk14
{
        $disk0;
        cellSet         actuationDisk14;
        diskPoint (945.0 9135.0 90.0); //location of the center of the disc
}
disk15
{
        $disk0;
        cellSet         actuationDisk15;
        diskPoint (945.0 9765.0 90.0); //location of the center of the disc
}
disk16
{
        $disk0;
        cellSet         actuationDisk16;
        diskPoint (945.0 10395.0 90.0); //location of the center of the disc
}
disk17
{
        $disk0;
        cellSet         actuationDisk17;
        diskPoint (945.0 11025.0 90.0); //location of the center of the disc
}
disk18
{
        $disk0;
        cellSet         actuationDisk18;
        diskPoint (945.0 11655.0 90.0); //location of the center of the disc
}
disk19
{
        $disk0;
        cellSet         actuationDisk19;
        diskPoint (945.0 12285.0 90.0); //location of the center of the disc
}
disk20
{
        $disk0;
        cellSet         actuationDisk20;
        diskPoint (945.0 12915.0 90.0); //location of the center of the disc
}
disk21
{
        $disk0;
        cellSet         actuationDisk21;
        diskPoint (945.0 13545.0 90.0); //location of the center of the disc
}
disk22
{
        $disk0;
        cellSet         actuationDisk22;
        diskPoint (945.0 14175.0 90.0); //location of the center of the disc
}
disk23
{
        $disk0;
        cellSet         actuationDisk23;
        diskPoint (945.0 14805.0 90.0); //location of the center of the disc
}
disk24
{
        $disk0;
        cellSet         actuationDisk24;
        diskPoint (945.0 15435.0 90.0); //location of the center of the disc
}
disk25
{
        $disk0;
        cellSet         actuationDisk25;
        diskPoint (945.0 16065.0 90.0); //location of the center of the disc
}
disk26
{
        $disk0;
        cellSet         actuationDisk26;
        diskPoint (945.0 16695.0 90.0); //location of the center of the disc
}
disk27
{
        $disk0;
        cellSet         actuationDisk27;
        diskPoint (945.0 17325.0 90.0); //location of the center of the disc
}
disk28
{
        $disk0;
        cellSet         actuationDisk28;
        diskPoint (945.0 17955.0 90.0); //location of the center of the disc
}
disk29
{
        $disk0;
        cellSet         actuationDisk29;
        diskPoint (945.0 18585.0 90.0); //location of the center of the disc
}
disk30
{
        $disk0;
        cellSet         actuationDisk30;
        diskPoint (945.0 19215.0 90.0); //location of the center of the disc
}
disk31
{
        $disk0;
        cellSet         actuationDisk31;
        diskPoint (945.0 19845.0 90.0); //location of the center of the disc
}
disk32
{
        $disk0;
        cellSet         actuationDisk32;
        diskPoint (1575.0 315.0 90.0); //location of the center of the disc
}
disk33
{
        $disk0;
        cellSet         actuationDisk33;
        diskPoint (1575.0 945.0 90.0); //location of the center of the disc
}
disk34
{
        $disk0;
        cellSet         actuationDisk34;
        diskPoint (1575.0 1575.0 90.0); //location of the center of the disc
}
disk35
{
        $disk0;
        cellSet         actuationDisk35;
        diskPoint (1575.0 2205.0 90.0); //location of the center of the disc
}
disk36
{
        $disk0;
        cellSet         actuationDisk36;
        diskPoint (1575.0 2835.0 90.0); //location of the center of the disc
}
disk37
{
        $disk0;
        cellSet         actuationDisk37;
        diskPoint (1575.0 3465.0 90.0); //location of the center of the disc
}
disk38
{
        $disk0;
        cellSet         actuationDisk38;
        diskPoint (1575.0 4095.0 90.0); //location of the center of the disc
}
disk39
{
        $disk0;
        cellSet         actuationDisk39;
        diskPoint (1575.0 4725.0 90.0); //location of the center of the disc
}
disk40
{
        $disk0;
        cellSet         actuationDisk40;
        diskPoint (1575.0 5355.0 90.0); //location of the center of the disc
}
disk41
{
        $disk0;
        cellSet         actuationDisk41;
        diskPoint (1575.0 5985.0 90.0); //location of the center of the disc
}
disk42
{
        $disk0;
        cellSet         actuationDisk42;
        diskPoint (1575.0 6615.0 90.0); //location of the center of the disc
}
disk43
{
        $disk0;
        cellSet         actuationDisk43;
        diskPoint (1575.0 7245.0 90.0); //location of the center of the disc
}
disk44
{
        $disk0;
        cellSet         actuationDisk44;
        diskPoint (1575.0 7875.0 90.0); //location of the center of the disc
}
disk45
{
        $disk0;
        cellSet         actuationDisk45;
        diskPoint (1575.0 8505.0 90.0); //location of the center of the disc
}
disk46
{
        $disk0;
        cellSet         actuationDisk46;
        diskPoint (1575.0 9135.0 90.0); //location of the center of the disc
}
disk47
{
        $disk0;
        cellSet         actuationDisk47;
        diskPoint (1575.0 9765.0 90.0); //location of the center of the disc
}
disk48
{
        $disk0;
        cellSet         actuationDisk48;
        diskPoint (1575.0 10395.0 90.0); //location of the center of the disc
}
disk49
{
        $disk0;
        cellSet         actuationDisk49;
        diskPoint (1575.0 11025.0 90.0); //location of the center of the disc
}
disk50
{
        $disk0;
        cellSet         actuationDisk50;
        diskPoint (1575.0 11655.0 90.0); //location of the center of the disc
}
disk51
{
        $disk0;
        cellSet         actuationDisk51;
        diskPoint (1575.0 12285.0 90.0); //location of the center of the disc
}
disk52
{
        $disk0;
        cellSet         actuationDisk52;
        diskPoint (1575.0 12915.0 90.0); //location of the center of the disc
}
disk53
{
        $disk0;
        cellSet         actuationDisk53;
        diskPoint (1575.0 13545.0 90.0); //location of the center of the disc
}
disk54
{
        $disk0;
        cellSet         actuationDisk54;
        diskPoint (1575.0 14175.0 90.0); //location of the center of the disc
}
disk55
{
        $disk0;
        cellSet         actuationDisk55;
        diskPoint (1575.0 14805.0 90.0); //location of the center of the disc
}
disk56
{
        $disk0;
        cellSet         actuationDisk56;
        diskPoint (1575.0 15435.0 90.0); //location of the center of the disc
}
disk57
{
        $disk0;
        cellSet         actuationDisk57;
        diskPoint (1575.0 16065.0 90.0); //location of the center of the disc
}
disk58
{
        $disk0;
        cellSet         actuationDisk58;
        diskPoint (1575.0 16695.0 90.0); //location of the center of the disc
}
disk59
{
        $disk0;
        cellSet         actuationDisk59;
        diskPoint (1575.0 17325.0 90.0); //location of the center of the disc
}
disk60
{
        $disk0;
        cellSet         actuationDisk60;
        diskPoint (1575.0 17955.0 90.0); //location of the center of the disc
}
disk61
{
        $disk0;
        cellSet         actuationDisk61;
        diskPoint (1575.0 18585.0 90.0); //location of the center of the disc
}
disk62
{
        $disk0;
        cellSet         actuationDisk62;
        diskPoint (1575.0 19215.0 90.0); //location of the center of the disc
}
disk63
{
        $disk0;
        cellSet         actuationDisk63;
        diskPoint (1575.0 19845.0 90.0); //location of the center of the disc
}
disk64
{
        $disk0;
        cellSet         actuationDisk64;
        diskPoint (2205.0 315.0 90.0); //location of the center of the disc
}
disk65
{
        $disk0;
        cellSet         actuationDisk65;
        diskPoint (2205.0 945.0 90.0); //location of the center of the disc
}
disk66
{
        $disk0;
        cellSet         actuationDisk66;
        diskPoint (2205.0 1575.0 90.0); //location of the center of the disc
}
disk67
{
        $disk0;
        cellSet         actuationDisk67;
        diskPoint (2205.0 2205.0 90.0); //location of the center of the disc
}
disk68
{
        $disk0;
        cellSet         actuationDisk68;
        diskPoint (2205.0 2835.0 90.0); //location of the center of the disc
}
disk69
{
        $disk0;
        cellSet         actuationDisk69;
        diskPoint (2205.0 3465.0 90.0); //location of the center of the disc
}
disk70
{
        $disk0;
        cellSet         actuationDisk70;
        diskPoint (2205.0 4095.0 90.0); //location of the center of the disc
}
disk71
{
        $disk0;
        cellSet         actuationDisk71;
        diskPoint (2205.0 4725.0 90.0); //location of the center of the disc
}
disk72
{
        $disk0;
        cellSet         actuationDisk72;
        diskPoint (2205.0 5355.0 90.0); //location of the center of the disc
}
disk73
{
        $disk0;
        cellSet         actuationDisk73;
        diskPoint (2205.0 5985.0 90.0); //location of the center of the disc
}
disk74
{
        $disk0;
        cellSet         actuationDisk74;
        diskPoint (2205.0 6615.0 90.0); //location of the center of the disc
}
disk75
{
        $disk0;
        cellSet         actuationDisk75;
        diskPoint (2205.0 7245.0 90.0); //location of the center of the disc
}
disk76
{
        $disk0;
        cellSet         actuationDisk76;
        diskPoint (2205.0 7875.0 90.0); //location of the center of the disc
}
disk77
{
        $disk0;
        cellSet         actuationDisk77;
        diskPoint (2205.0 8505.0 90.0); //location of the center of the disc
}
disk78
{
        $disk0;
        cellSet         actuationDisk78;
        diskPoint (2205.0 9135.0 90.0); //location of the center of the disc
}
disk79
{
        $disk0;
        cellSet         actuationDisk79;
        diskPoint (2205.0 9765.0 90.0); //location of the center of the disc
}
disk80
{
        $disk0;
        cellSet         actuationDisk80;
        diskPoint (2205.0 10395.0 90.0); //location of the center of the disc
}
disk81
{
        $disk0;
        cellSet         actuationDisk81;
        diskPoint (2205.0 11025.0 90.0); //location of the center of the disc
}
disk82
{
        $disk0;
        cellSet         actuationDisk82;
        diskPoint (2205.0 11655.0 90.0); //location of the center of the disc
}
disk83
{
        $disk0;
        cellSet         actuationDisk83;
        diskPoint (2205.0 12285.0 90.0); //location of the center of the disc
}
disk84
{
        $disk0;
        cellSet         actuationDisk84;
        diskPoint (2205.0 12915.0 90.0); //location of the center of the disc
}
disk85
{
        $disk0;
        cellSet         actuationDisk85;
        diskPoint (2205.0 13545.0 90.0); //location of the center of the disc
}
disk86
{
        $disk0;
        cellSet         actuationDisk86;
        diskPoint (2205.0 14175.0 90.0); //location of the center of the disc
}
disk87
{
        $disk0;
        cellSet         actuationDisk87;
        diskPoint (2205.0 14805.0 90.0); //location of the center of the disc
}
disk88
{
        $disk0;
        cellSet         actuationDisk88;
        diskPoint (2205.0 15435.0 90.0); //location of the center of the disc
}
disk89
{
        $disk0;
        cellSet         actuationDisk89;
        diskPoint (2205.0 16065.0 90.0); //location of the center of the disc
}
disk90
{
        $disk0;
        cellSet         actuationDisk90;
        diskPoint (2205.0 16695.0 90.0); //location of the center of the disc
}
disk91
{
        $disk0;
        cellSet         actuationDisk91;
        diskPoint (2205.0 17325.0 90.0); //location of the center of the disc
}
disk92
{
        $disk0;
        cellSet         actuationDisk92;
        diskPoint (2205.0 17955.0 90.0); //location of the center of the disc
}
disk93
{
        $disk0;
        cellSet         actuationDisk93;
        diskPoint (2205.0 18585.0 90.0); //location of the center of the disc
}
disk94
{
        $disk0;
        cellSet         actuationDisk94;
        diskPoint (2205.0 19215.0 90.0); //location of the center of the disc
}
disk95
{
        $disk0;
        cellSet         actuationDisk95;
        diskPoint (2205.0 19845.0 90.0); //location of the center of the disc
}
disk96
{
        $disk0;
        cellSet         actuationDisk96;
        diskPoint (2835.0 315.0 90.0); //location of the center of the disc
}
disk97
{
        $disk0;
        cellSet         actuationDisk97;
        diskPoint (2835.0 945.0 90.0); //location of the center of the disc
}
disk98
{
        $disk0;
        cellSet         actuationDisk98;
        diskPoint (2835.0 1575.0 90.0); //location of the center of the disc
}
disk99
{
        $disk0;
        cellSet         actuationDisk99;
        diskPoint (2835.0 2205.0 90.0); //location of the center of the disc
}
disk100
{
        $disk0;
        cellSet         actuationDisk100;
        diskPoint (2835.0 2835.0 90.0); //location of the center of the disc
}
disk101
{
        $disk0;
        cellSet         actuationDisk101;
        diskPoint (2835.0 3465.0 90.0); //location of the center of the disc
}
disk102
{
        $disk0;
        cellSet         actuationDisk102;
        diskPoint (2835.0 4095.0 90.0); //location of the center of the disc
}
disk103
{
        $disk0;
        cellSet         actuationDisk103;
        diskPoint (2835.0 4725.0 90.0); //location of the center of the disc
}
disk104
{
        $disk0;
        cellSet         actuationDisk104;
        diskPoint (2835.0 5355.0 90.0); //location of the center of the disc
}
disk105
{
        $disk0;
        cellSet         actuationDisk105;
        diskPoint (2835.0 5985.0 90.0); //location of the center of the disc
}
disk106
{
        $disk0;
        cellSet         actuationDisk106;
        diskPoint (2835.0 6615.0 90.0); //location of the center of the disc
}
disk107
{
        $disk0;
        cellSet         actuationDisk107;
        diskPoint (2835.0 7245.0 90.0); //location of the center of the disc
}
disk108
{
        $disk0;
        cellSet         actuationDisk108;
        diskPoint (2835.0 7875.0 90.0); //location of the center of the disc
}
disk109
{
        $disk0;
        cellSet         actuationDisk109;
        diskPoint (2835.0 8505.0 90.0); //location of the center of the disc
}
disk110
{
        $disk0;
        cellSet         actuationDisk110;
        diskPoint (2835.0 9135.0 90.0); //location of the center of the disc
}
disk111
{
        $disk0;
        cellSet         actuationDisk111;
        diskPoint (2835.0 9765.0 90.0); //location of the center of the disc
}
disk112
{
        $disk0;
        cellSet         actuationDisk112;
        diskPoint (2835.0 10395.0 90.0); //location of the center of the disc
}
disk113
{
        $disk0;
        cellSet         actuationDisk113;
        diskPoint (2835.0 11025.0 90.0); //location of the center of the disc
}
disk114
{
        $disk0;
        cellSet         actuationDisk114;
        diskPoint (2835.0 11655.0 90.0); //location of the center of the disc
}
disk115
{
        $disk0;
        cellSet         actuationDisk115;
        diskPoint (2835.0 12285.0 90.0); //location of the center of the disc
}
disk116
{
        $disk0;
        cellSet         actuationDisk116;
        diskPoint (2835.0 12915.0 90.0); //location of the center of the disc
}
disk117
{
        $disk0;
        cellSet         actuationDisk117;
        diskPoint (2835.0 13545.0 90.0); //location of the center of the disc
}
disk118
{
        $disk0;
        cellSet         actuationDisk118;
        diskPoint (2835.0 14175.0 90.0); //location of the center of the disc
}
disk119
{
        $disk0;
        cellSet         actuationDisk119;
        diskPoint (2835.0 14805.0 90.0); //location of the center of the disc
}
disk120
{
        $disk0;
        cellSet         actuationDisk120;
        diskPoint (2835.0 15435.0 90.0); //location of the center of the disc
}
disk121
{
        $disk0;
        cellSet         actuationDisk121;
        diskPoint (2835.0 16065.0 90.0); //location of the center of the disc
}
disk122
{
        $disk0;
        cellSet         actuationDisk122;
        diskPoint (2835.0 16695.0 90.0); //location of the center of the disc
}
disk123
{
        $disk0;
        cellSet         actuationDisk123;
        diskPoint (2835.0 17325.0 90.0); //location of the center of the disc
}
disk124
{
        $disk0;
        cellSet         actuationDisk124;
        diskPoint (2835.0 17955.0 90.0); //location of the center of the disc
}
disk125
{
        $disk0;
        cellSet         actuationDisk125;
        diskPoint (2835.0 18585.0 90.0); //location of the center of the disc
}
disk126
{
        $disk0;
        cellSet         actuationDisk126;
        diskPoint (2835.0 19215.0 90.0); //location of the center of the disc
}
disk127
{
        $disk0;
        cellSet         actuationDisk127;
        diskPoint (2835.0 19845.0 90.0); //location of the center of the disc
}
disk128
{
        $disk0;
        cellSet         actuationDisk128;
        diskPoint (3465.0 315.0 90.0); //location of the center of the disc
}
disk129
{
        $disk0;
        cellSet         actuationDisk129;
        diskPoint (3465.0 945.0 90.0); //location of the center of the disc
}
disk130
{
        $disk0;
        cellSet         actuationDisk130;
        diskPoint (3465.0 1575.0 90.0); //location of the center of the disc
}
disk131
{
        $disk0;
        cellSet         actuationDisk131;
        diskPoint (3465.0 2205.0 90.0); //location of the center of the disc
}
disk132
{
        $disk0;
        cellSet         actuationDisk132;
        diskPoint (3465.0 2835.0 90.0); //location of the center of the disc
}
disk133
{
        $disk0;
        cellSet         actuationDisk133;
        diskPoint (3465.0 3465.0 90.0); //location of the center of the disc
}
disk134
{
        $disk0;
        cellSet         actuationDisk134;
        diskPoint (3465.0 4095.0 90.0); //location of the center of the disc
}
disk135
{
        $disk0;
        cellSet         actuationDisk135;
        diskPoint (3465.0 4725.0 90.0); //location of the center of the disc
}
disk136
{
        $disk0;
        cellSet         actuationDisk136;
        diskPoint (3465.0 5355.0 90.0); //location of the center of the disc
}
disk137
{
        $disk0;
        cellSet         actuationDisk137;
        diskPoint (3465.0 5985.0 90.0); //location of the center of the disc
}
disk138
{
        $disk0;
        cellSet         actuationDisk138;
        diskPoint (3465.0 6615.0 90.0); //location of the center of the disc
}
disk139
{
        $disk0;
        cellSet         actuationDisk139;
        diskPoint (3465.0 7245.0 90.0); //location of the center of the disc
}
disk140
{
        $disk0;
        cellSet         actuationDisk140;
        diskPoint (3465.0 7875.0 90.0); //location of the center of the disc
}
disk141
{
        $disk0;
        cellSet         actuationDisk141;
        diskPoint (3465.0 8505.0 90.0); //location of the center of the disc
}
disk142
{
        $disk0;
        cellSet         actuationDisk142;
        diskPoint (3465.0 9135.0 90.0); //location of the center of the disc
}
disk143
{
        $disk0;
        cellSet         actuationDisk143;
        diskPoint (3465.0 9765.0 90.0); //location of the center of the disc
}
disk144
{
        $disk0;
        cellSet         actuationDisk144;
        diskPoint (3465.0 10395.0 90.0); //location of the center of the disc
}
disk145
{
        $disk0;