/*--------------------------------*- C++ -*----------------------------------*\
| =========                 |                                                 |
| \\      /  F ield         | OpenFOAM: The Open Source CFD Toolbox           |
|  \\    /   O peration     | Version:  v2406                                 |
|   \\  /    A nd           | Website:  www.openfoam.com                      |
|    \\/     M anipulation  |                                                 |
\*---------------------------------------------------------------------------*/
FoamFile
{
    version     2.0;
    format      ascii;
    class       dictionary;
    object      topoSetDict;
}

// * * * * * * * * * * * * * * * * * * * * * * * * * * * * * * * * * * * * * //

actions
(

    // Refine Section CellSet
    {
        name    refineSection;
        type    cellSet;
        action  new;
        source  cylinderToCell;
        sourceInfo
        {
            p1 (903.0 315.0 90.0);
            p2 (1071.0 315.0 90.0);
            radius 75.6;
        }
    }
    // actuationDisk0CellSet
    {
        name    actuationDisk0CellSet;
        type    cellSet;
        action  new;
        source  cylinderToCell;
        sourceInfo
        {
            p1 (903.0 315.0 90.0);
            p2 (1071.0 315.0 90.0);
            radius 75.6;
        }
    }
    {
        name    actuationDisk0;
        type    cellZoneSet;
        action  new;
        source  setToCellZone;
        sourceInfo
        {
            set actuationDisk0CellSet;
        }
    }
    {
        name    refineSection;
        type    cellSet;
        action  add;
        source  cylinderToCell;
        sourceInfo
        {
            p1 (903.0 315.0 90.0);
            p2 (1071.0 315.0 90.0);
            radius 75.6;
        }
    }
    // actuationDisk1CellSet
    {
        name    actuationDisk1CellSet;
        type    cellSet;
        action  new;
        source  cylinderToCell;
        sourceInfo
        {
            p1 (903.0 945.0 90.0);
            p2 (1071.0 945.0 90.0);
            radius 75.6;
        }
    }
    {
        name    actuationDisk1;
        type    cellZoneSet;
        action  new;
        source  setToCellZone;
        sourceInfo
        {
            set actuationDisk1CellSet;
        }
    }
    {
        name    refineSection;
        type    cellSet;
        action  add;
        source  cylinderToCell;
        sourceInfo
        {
            p1 (903.0 945.0 90.0);
            p2 (1071.0 945.0 90.0);
            radius 75.6;
        }
    }
    // actuationDisk2CellSet
    {
        name    actuationDisk2CellSet;
        type    cellSet;
        action  new;
        source  cylinderToCell;
        sourceInfo
        {
            p1 (903.0 1575.0 90.0);
            p2 (1071.0 1575.0 90.0);
            radius 75.6;
        }
    }
    {
        name    actuationDisk2;
        type    cellZoneSet;
        action  new;
        source  setToCellZone;
        sourceInfo
        {
            set actuationDisk2CellSet;
        }
    }
    {
        name    refineSection;
        type    cellSet;
        action  add;
        source  cylinderToCell;
        sourceInfo
        {
            p1 (903.0 1575.0 90.0);
            p2 (1071.0 1575.0 90.0);
            radius 75.6;
        }
    }
    // actuationDisk3CellSet
    {
        name    actuationDisk3CellSet;
        type    cellSet;
        action  new;
        source  cylinderToCell;
        sourceInfo
        {
            p1 (903.0 2205.0 90.0);
            p2 (1071.0 2205.0 90.0);
            radius 75.6;
        }
    }
    {
        name    actuationDisk3;
        type    cellZoneSet;
        action  new;
        source  setToCellZone;
        sourceInfo
        {
            set actuationDisk3CellSet;
        }
    }
    {
        name    refineSection;
        type    cellSet;
        action  add;
        source  cylinderToCell;
        sourceInfo
        {
            p1 (903.0 2205.0 90.0);
            p2 (1071.0 2205.0 90.0);
            radius 75.6;
        }
    }
    // actuationDisk4CellSet
    {
        name    actuationDisk4CellSet;
        type    cellSet;
        action  new;
        source  cylinderToCell;
        sourceInfo
        {
            p1 (903.0 2835.0 90.0);
            p2 (1071.0 2835.0 90.0);
            radius 75.6;
        }
    }
    {
        name    actuationDisk4;
        type    cellZoneSet;
        action  new;
        source  setToCellZone;
        sourceInfo
        {
            set actuationDisk4CellSet;
        }
    }
    {
        name    refineSection;
        type    cellSet;
        action  add;
        source  cylinderToCell;
        sourceInfo
        {
            p1 (903.0 2835.0 90.0);
            p2 (1071.0 2835.0 90.0);
            radius 75.6;
        }
    }
    // actuationDisk5CellSet
    {
        name    actuationDisk5CellSet;
        type    cellSet;
        action  new;
        source  cylinderToCell;
        sourceInfo
        {
            p1 (903.0 3465.0 90.0);
            p2 (1071.0 3465.0 90.0);
            radius 75.6;
        }
    }
    {
        name    actuationDisk5;
        type    cellZoneSet;
        action  new;
        source  setToCellZone;
        sourceInfo
        {
            set actuationDisk5CellSet;
        }
    }
    {
        name    refineSection;
        type    cellSet;
        action  add;
        source  cylinderToCell;
        sourceInfo
        {
            p1 (903.0 3465.0 90.0);
            p2 (1071.0 3465.0 90.0);
            radius 75.6;
        }
    }
    // actuationDisk6CellSet
    {
        name    actuationDisk6CellSet;
        type    cellSet;
        action  new;
        source  cylinderToCell;
        sourceInfo
        {
            p1 (903.0 4095.0 90.0);
            p2 (1071.0 4095.0 90.0);
            radius 75.6;
        }
    }
    {
        name    actuationDisk6;
        type    cellZoneSet;
        action  new;
        source  setToCellZone;
        sourceInfo
        {
            set actuationDisk6CellSet;
        }
    }
    {
        name    refineSection;
        type    cellSet;
        action  add;
        source  cylinderToCell;
        sourceInfo
        {
            p1 (903.0 4095.0 90.0);
            p2 (1071.0 4095.0 90.0);
            radius 75.6;
        }
    }
    // actuationDisk7CellSet
    {
        name    actuationDisk7CellSet;
        type    cellSet;
        action  new;
        source  cylinderToCell;
        sourceInfo
        {
            p1 (903.0 4725.0 90.0);
            p2 (1071.0 4725.0 90.0);
            radius 75.6;
        }
    }
    {
        name    actuationDisk7;
        type    cellZoneSet;
        action  new;
        source  setToCellZone;
        sourceInfo
        {
            set actuationDisk7CellSet;
        }
    }
    {
        name    refineSection;
        type    cellSet;
        action  add;
        source  cylinderToCell;
        sourceInfo
        {
            p1 (903.0 4725.0 90.0);
            p2 (1071.0 4725.0 90.0);
            radius 75.6;
        }
    }
    // actuationDisk8CellSet
    {
        name    actuationDisk8CellSet;
        type    cellSet;
        action  new;
        source  cylinderToCell;
        sourceInfo
        {
            p1 (903.0 5355.0 90.0);
            p2 (1071.0 5355.0 90.0);
            radius 75.6;
        }
    }
    {
        name    actuationDisk8;
        type    cellZoneSet;
        action  new;
        source  setToCellZone;
        sourceInfo
        {
            set actuationDisk8CellSet;
        }
    }
    {
        name    refineSection;
        type    cellSet;
        action  add;
        source  cylinderToCell;
        sourceInfo
        {
            p1 (903.0 5355.0 90.0);
            p2 (1071.0 5355.0 90.0);
            radius 75.6;
        }
    }
    // actuationDisk9CellSet
    {
        name    actuationDisk9CellSet;
        type    cellSet;
        action  new;
        source  cylinderToCell;
        sourceInfo
        {
            p1 (903.0 5985.0 90.0);
            p2 (1071.0 5985.0 90.0);
            radius 75.6;
        }
    }
    {
        name    actuationDisk9;
        type    cellZoneSet;
        action  new;
        source  setToCellZone;
        sourceInfo
        {
            set actuationDisk9CellSet;
        }
    }
    {
        name    refineSection;
        type    cellSet;
        action  add;
        source  cylinderToCell;
        sourceInfo
        {
            p1 (903.0 5985.0 90.0);
            p2 (1071.0 5985.0 90.0);
            radius 75.6;
        }
    }
    // actuationDisk10CellSet
    {
        name    actuationDisk10CellSet;
        type    cellSet;
        action  new;
        source  cylinderToCell;
        sourceInfo
        {
            p1 (903.0 6615.0 90.0);
            p2 (1071.0 6615.0 90.0);
            radius 75.6;
        }
    }
    {
        name    actuationDisk10;
        type    cellZoneSet;
        action  new;
        source  setToCellZone;
        sourceInfo
        {
            set actuationDisk10CellSet;
        }
    }
    {
        name    refineSection;
        type    cellSet;
        action  add;
        source  cylinderToCell;
        sourceInfo
        {
            p1 (903.0 6615.0 90.0);
            p2 (1071.0 6615.0 90.0);
            radius 75.6;
        }
    }
    // actuationDisk11CellSet
    {
        name    actuationDisk11CellSet;
        type    cellSet;
        action  new;
        source  cylinderToCell;
        sourceInfo
        {
            p1 (903.0 7245.0 90.0);
            p2 (1071.0 7245.0 90.0);
            radius 75.6;
        }
    }
    {
        name    actuationDisk11;
        type    cellZoneSet;
        action  new;
        source  setToCellZone;
        sourceInfo
        {
            set actuationDisk11CellSet;
        }
    }
    {
        name    refineSection;
        type    cellSet;
        action  add;
        source  cylinderToCell;
        sourceInfo
        {
            p1 (903.0 7245.0 90.0);
            p2 (1071.0 7245.0 90.0);
            radius 75.6;
        }
    }
    // actuationDisk12CellSet
    {
        name    actuationDisk12CellSet;
        type    cellSet;
        action  new;
        source  cylinderToCell;
        sourceInfo
        {
            p1 (903.0 7875.0 90.0);
            p2 (1071.0 7875.0 90.0);
            radius 75.6;
        }
    }
    {
        name    actuationDisk12;
        type    cellZoneSet;
        action  new;
        source  setToCellZone;
        sourceInfo
        {
            set actuationDisk12CellSet;
        }
    }
    {
        name    refineSection;
        type    cellSet;
        action  add;
        source  cylinderToCell;
        sourceInfo
        {
            p1 (903.0 7875.0 90.0);
            p2 (1071.0 7875.0 90.0);
            radius 75.6;
        }
    }
    // actuationDisk13CellSet
    {
        name    actuationDisk13CellSet;
        type    cellSet;
        action  new;
        source  cylinderToCell;
        sourceInfo
        {
            p1 (903.0 8505.0 90.0);
            p2 (1071.0 8505.0 90.0);
            radius 75.6;
        }
    }
    {
        name    actuationDisk13;
        type    cellZoneSet;
        action  new;
        source  setToCellZone;
        sourceInfo
        {
            set actuationDisk13CellSet;
        }
    }
    {
        name    refineSection;
        type    cellSet;
        action  add;
        source  cylinderToCell;
        sourceInfo
        {
            p1 (903.0 8505.0 90.0);
            p2 (1071.0 8505.0 90.0);
            radius 75.6;
        }
    }
    // actuationDisk14CellSet
    {
        name    actuationDisk14CellSet;
        type    cellSet;
        action  new;
        source  cylinderToCell;
        sourceInfo
        {
            p1 (903.0 9135.0 90.0);
            p2 (1071.0 9135.0 90.0);
            radius 75.6;
        }
    }
    {
        name    actuationDisk14;
        type    cellZoneSet;
        action  new;
        source  setToCellZone;
        sourceInfo
        {
            set actuationDisk14CellSet;
        }
    }
    {
        name    refineSection;
        type    cellSet;
        action  add;
        source  cylinderToCell;
        sourceInfo
        {
            p1 (903.0 9135.0 90.0);
            p2 (1071.0 9135.0 90.0);
            radius 75.6;
        }
    }
    // actuationDisk15CellSet
    {
        name    actuationDisk15CellSet;
        type    cellSet;
        action  new;
        source  cylinderToCell;
        sourceInfo
        {
            p1 (903.0 9765.0 90.0);
            p2 (1071.0 9765.0 90.0);
            radius 75.6;
        }
    }
    {
        name    actuationDisk15;
        type    cellZoneSet;
        action  new;
        source  setToCellZone;
        sourceInfo
        {
            set actuationDisk15CellSet;
        }
    }
    {
        name    refineSection;
        type    cellSet;
        action  add;
        source  cylinderToCell;
        sourceInfo
        {
            p1 (903.0 9765.0 90.0);
            p2 (1071.0 9765.0 90.0);
            radius 75.6;
        }
    }
    // actuationDisk16CellSet
    {
        name    actuationDisk16CellSet;
        type    cellSet;
        action  new;
        source  cylinderToCell;
        sourceInfo
        {
            p1 (903.0 10395.0 90.0);
            p2 (1071.0 10395.0 90.0);
            radius 75.6;
        }
    }
    {
        name    actuationDisk16;
        type    cellZoneSet;
        action  new;
        source  setToCellZone;
        sourceInfo
        {
            set actuationDisk16CellSet;
        }
    }
    {
        name    refineSection;
        type    cellSet;
        action  add;
        source  cylinderToCell;
        sourceInfo
        {
            p1 (903.0 10395.0 90.0);
            p2 (1071.0 10395.0 90.0);
            radius 75.6;
        }
    }
    // actuationDisk17CellSet
    {
        name    actuationDisk17CellSet;
        type    cellSet;
        action  new;
        source  cylinderToCell;
        sourceInfo
        {
            p1 (903.0 11025.0 90.0);
            p2 (1071.0 11025.0 90.0);
            radius 75.6;
        }
    }
    {
        name    actuationDisk17;
        type    cellZoneSet;
        action  new;
        source  setToCellZone;
        sourceInfo
        {
            set actuationDisk17CellSet;
        }
    }
    {
        name    refineSection;
        type    cellSet;
        action  add;
        source  cylinderToCell;
        sourceInfo
        {
            p1 (903.0 11025.0 90.0);
            p2 (1071.0 11025.0 90.0);
            radius 75.6;
        }
    }
    // actuationDisk18CellSet
    {
        name    actuationDisk18CellSet;
        type    cellSet;
        action  new;
        source  cylinderToCell;
        sourceInfo
        {
            p1 (903.0 11655.0 90.0);
            p2 (1071.0 11655.0 90.0);
            radius 75.6;
        }
    }
    {
        name    actuationDisk18;
        type    cellZoneSet;
        action  new;
        source  setToCellZone;
        sourceInfo
        {
            set actuationDisk18CellSet;
        }
    }
    {
        name    refineSection;
        type    cellSet;
        action  add;
        source  cylinderToCell;
        sourceInfo
        {
            p1 (903.0 11655.0 90.0);
            p2 (1071.0 11655.0 90.0);
            radius 75.6;
        }
    }
    // actuationDisk19CellSet
    {
        name    actuationDisk19CellSet;
        type    cellSet;
        action  new;
        source  cylinderToCell;
        sourceInfo
        {
            p1 (903.0 12285.0 90.0);
            p2 (1071.0 12285.0 90.0);
            radius 75.6;
        }
    }
    {
        name    actuationDisk19;
        type    cellZoneSet;
        action  new;
        source  setToCellZone;
        sourceInfo
        {
            set actuationDisk19CellSet;
        }
    }
    {
        name    refineSection;
        type    cellSet;
        action  add;
        source  cylinderToCell;
        sourceInfo
        {
            p1 (903.0 12285.0 90.0);
            p2 (1071.0 12285.0 90.0);
            radius 75.6;
        }
    }
    // actuationDisk20CellSet
    {
        name    actuationDisk20CellSet;
        type    cellSet;
        action  new;
        source  cylinderToCell;
        sourceInfo
        {
            p1 (903.0 12915.0 90.0);
            p2 (1071.0 12915.0 90.0);
            radius 75.6;
        }
    }
    {
        name    actuationDisk20;
        type    cellZoneSet;
        action  new;
        source  setToCellZone;
        sourceInfo
        {
            set actuationDisk20CellSet;
        }
    }
    {
        name    refineSection;
        type    cellSet;
        action  add;
        source  cylinderToCell;
        sourceInfo
        {
            p1 (903.0 12915.0 90.0);
            p2 (1071.0 12915.0 90.0);
            radius 75.6;
        }
    }
    // actuationDisk21CellSet
    {
        name    actuationDisk21CellSet;
        type    cellSet;
        action  new;
        source  cylinderToCell;
        sourceInfo
        {
            p1 (903.0 13545.0 90.0);
            p2 (1071.0 13545.0 90.0);
            radius 75.6;
        }
    }
    {
        name    actuationDisk21;
        type    cellZoneSet;
        action  new;
        source  setToCellZone;
        sourceInfo
        {
            set actuationDisk21CellSet;
        }
    }
    {
        name    refineSection;
        type    cellSet;
        action  add;
        source  cylinderToCell;
        sourceInfo
        {
            p1 (903.0 13545.0 90.0);
            p2 (1071.0 13545.0 90.0);
            radius 75.6;
        }
    }
    // actuationDisk22CellSet
    {
        name    actuationDisk22CellSet;
        type    cellSet;
        action  new;
        source  cylinderToCell;
        sourceInfo
        {
            p1 (903.0 14175.0 90.0);
            p2 (1071.0 14175.0 90.0);
            radius 75.6;
        }
    }
    {
        name    actuationDisk22;
        type    cellZoneSet;
        action  new;
        source  setToCellZone;
        sourceInfo
        {
            set actuationDisk22CellSet;
        }
    }
    {
        name    refineSection;
        type    cellSet;
        action  add;
        source  cylinderToCell;
        sourceInfo
        {
            p1 (903.0 14175.0 90.0);
            p2 (1071.0 14175.0 90.0);
            radius 75.6;
        }
    }
    // actuationDisk23CellSet
    {
        name    actuationDisk23CellSet;
        type    cellSet;
        action  new;
        source  cylinderToCell;
        sourceInfo
        {
            p1 (903.0 14805.0 90.0);
            p2 (1071.0 14805.0 90.0);
            radius 75.6;
        }
    }
    {
        name    actuationDisk23;
        type    cellZoneSet;
        action  new;
        source  setToCellZone;
        sourceInfo
        {
            set actuationDisk23CellSet;
        }
    }
    {
        name    refineSection;
        type    cellSet;
        action  add;
        source  cylinderToCell;
        sourceInfo
        {
            p1 (903.0 14805.0 90.0);
            p2 (1071.0 14805.0 90.0);
            radius 75.6;
        }
    }
    // actuationDisk24CellSet
    {
        name    actuationDisk24CellSet;
        type    cellSet;
        action  new;
        source  cylinderToCell;
        sourceInfo
        {
            p1 (903.0 15435.0 90.0);
            p2 (1071.0 15435.0 90.0);
            radius 75.6;
        }
    }
    {
        name    actuationDisk24;
        type    cellZoneSet;
        action  new;
        source  setToCellZone;
        sourceInfo
        {
            set actuationDisk24CellSet;
        }
    }
    {
        name    refineSection;
        type    cellSet;
        action  add;
        source  cylinderToCell;
        sourceInfo
        {
            p1 (903.0 15435.0 90.0);
            p2 (1071.0 15435.0 90.0);
            radius 75.6;
        }
    }
    // actuationDisk25CellSet
    {
        name    actuationDisk25CellSet;
        type    cellSet;
        action  new;
        source  cylinderToCell;
        sourceInfo
        {
            p1 (903.0 16065.0 90.0);
            p2 (1071.0 16065.0 90.0);
            radius 75.6;
        }
    }
    {
        name    actuationDisk25;
        type    cellZoneSet;
        action  new;
        source  setToCellZone;
        sourceInfo
        {
            set actuationDisk25CellSet;
        }
    }
    {
        name    refineSection;
        type    cellSet;
        action  add;
        source  cylinderToCell;
        sourceInfo
        {
            p1 (903.0 16065.0 90.0);
            p2 (1071.0 16065.0 90.0);
            radius 75.6;
        }
    }
    // actuationDisk26CellSet
    {
        name    actuationDisk26CellSet;
        type    cellSet;
        action  new;
        source  cylinderToCell;
        sourceInfo
        {
            p1 (903.0 16695.0 90.0);
            p2 (1071.0 16695.0 90.0);
            radius 75.6;
        }
    }
    {
        name    actuationDisk26;
        type    cellZoneSet;
        action  new;
        source  setToCellZone;
        sourceInfo
        {
            set actuationDisk26CellSet;
        }
    }
    {
        name    refineSection;
        type    cellSet;
        action  add;
        source  cylinderToCell;
        sourceInfo
        {
            p1 (903.0 16695.0 90.0);
            p2 (1071.0 16695.0 90.0);
            radius 75.6;
        }
    }
    // actuationDisk27CellSet
    {
        name    actuationDisk27CellSet;
        type    cellSet;
        action  new;
        source  cylinderToCell;
        sourceInfo
        {
            p1 (903.0 17325.0 90.0);
            p2 (1071.0 17325.0 90.0);
            radius 75.6;
        }
    }
    {
        name    actuationDisk27;
        type    cellZoneSet;
        action  new;
        source  setToCellZone;
        sourceInfo
        {
            set actuationDisk27CellSet;
        }
    }
    {
        name    refineSection;
        type    cellSet;
        action  add;
        source  cylinderToCell;
        sourceInfo
        {
            p1 (903.0 17325.0 90.0);
            p2 (1071.0 17325.0 90.0);
            radius 75.6;
        }
    }
    // actuationDisk28CellSet
    {
        name    actuationDisk28CellSet;
        type    cellSet;
        action  new;
        source  cylinderToCell;
        sourceInfo
        {
            p1 (903.0 17955.0 90.0);
            p2 (1071.0 17955.0 90.0);
            radius 75.6;
        }
    }
    {
        name    actuationDisk28;
        type    cellZoneSet;
        action  new;
        source  setToCellZone;
        sourceInfo
        {
            set actuationDisk28CellSet;
        }
    }
    {
        name    refineSection;
        type    cellSet;
        action  add;
        source  cylinderToCell;
        sourceInfo
        {
            p1 (903.0 17955.0 90.0);
            p2 (1071.0 17955.0 90.0);
            radius 75.6;
        }
    }
    // actuationDisk29CellSet
    {
        name    actuationDisk29CellSet;
        type    cellSet;
        action  new;
        source  cylinderToCell;
        sourceInfo
        {
            p1 (903.0 18585.0 90.0);
            p2 (1071.0 18585.0 90.0);
            radius 75.6;
        }
    }
    {
        name    actuationDisk29;
        type    cellZoneSet;
        action  new;
        source  setToCellZone;
        sourceInfo
        {
            set actuationDisk29CellSet;
        }
    }
    {
        name    refineSection;
        type    cellSet;
        action  add;
        source  cylinderToCell;
        sourceInfo
        {
            p1 (903.0 18585.0 90.0);
            p2 (1071.0 18585.0 90.0);
            radius 75.6;
        }
    }
    // actuationDisk30CellSet
    {
        name    actuationDisk30CellSet;
        type    cellSet;
        action  new;
        source  cylinderToCell;
        sourceInfo
        {
            p1 (903.0 19215.0 90.0);
            p2 (1071.0 19215.0 90.0);
            radius 75.6;
        }
    }
    {
        name    actuationDisk30;
        type    cellZoneSet;
        action  new;
        source  setToCellZone;
        sourceInfo
        {
            set actuationDisk30CellSet;
        }
    }
    {
        name    refineSection;
        type    cellSet;
        action  add;
        source  cylinderToCell;
        sourceInfo
        {
            p1 (903.0 19215.0 90.0);
            p2 (1071.0 19215.0 90.0);
            radius 75.6;
        }
    }
    // actuationDisk31CellSet
    {
        name    actuationDisk31CellSet;
        type    cellSet;
        action  new;
        source  cylinderToCell;
        sourceInfo
        {
            p1 (903.0 19845.0 90.0);
            p2 (1071.0 19845.0 90.0);
            radius 75.6;
        }
    }
    {
        name    actuationDisk31;
        type    cellZoneSet;
        action  new;
        source  setToCellZone;
        sourceInfo
        {
            set actuationDisk31CellSet;
        }
    }
    {
        name    refineSection;
        type    cellSet;
        action  add;
        source  cylinderToCell;
        sourceInfo
        {
            p1 (903.0 19845.0 90.0);
            p2 (1071.0 19845.0 90.0);
            radius 75.6;
        }
    }
    // actuationDisk32CellSet
    {
        name    actuationDisk32CellSet;
        type    cellSet;
        action  new;
        source  cylinderToCell;
        sourceInfo
        {
            p1 (1533.0 315.0 90.0);
            p2 (1701.0 315.0 90.0);
            radius 75.6;
        }
    }
    {
        name    actuationDisk32;
        type    cellZoneSet;
        action  new;
        source  setToCellZone;
        sourceInfo
        {
            set actuationDisk32CellSet;
        }
    }
    {
        name    refineSection;
        type    cellSet;
        action  add;
        source  cylinderToCell;
        sourceInfo
        {
            p1 (1533.0 315.0 90.0);
            p2 (1701.0 315.0 90.0);
            radius 75.6;
        }
    }
    // actuationDisk33CellSet
    {
        name    actuationDisk33CellSet;
        type    cellSet;
        action  new;
        source  cylinderToCell;
        sourceInfo
        {
            p1 (1533.0 945.0 90.0);
            p2 (1701.0 945.0 90.0);
            radius 75.6;
        }
    }
    {
        name    actuationDisk33;
        type    cellZoneSet;
        action  new;
        source  setToCellZone;
        sourceInfo
        {
            set actuationDisk33CellSet;
        }
    }
    {
        name    refineSection;
        type    cellSet;
        action  add;
        source  cylinderToCell;
        sourceInfo
        {
            p1 (1533.0 945.0 90.0);
            p2 (1701.0 945.0 90.0);
            radius 75.6;
        }
    }
    // actuationDisk34CellSet
    {
        name    actuationDisk34CellSet;
        type    cellSet;
        action  new;
        source  cylinderToCell;
        sourceInfo
        {
            p1 (1533.0 1575.0 90.0);
            p2 (1701.0 1575.0 90.0);
            radius 75.6;
        }
    }
    {
        name    actuationDisk34;
        type    cellZoneSet;
        action  new;
        source  setToCellZone;
        sourceInfo
        {
            set actuationDisk34CellSet;
        }
    }
    {
        name    refineSection;
        type    cellSet;
        action  add;
        source  cylinderToCell;
        sourceInfo
        {
            p1 (1533.0 1575.0 90.0);
            p2 (1701.0 1575.0 90.0);
            radius 75.6;
        }
    }
    // actuationDisk35CellSet
    {
        name    actuationDisk35CellSet;
        type    cellSet;
        action  new;
        source  cylinderToCell;
        sourceInfo
        {
            p1 (1533.0 2205.0 90.0);
            p2 (1701.0 2205.0 90.0);
            radius 75.6;
        }
    }
    {
        name    actuationDisk35;
        type    cellZoneSet;
        action  new;
        source  setToCellZone;
        sourceInfo
        {
            set actuationDisk35CellSet;
        }
    }
    {
        name    refineSection;
        type    cellSet;
        action  add;
        source  cylinderToCell;
        sourceInfo
        {
            p1 (1533.0 2205.0 90.0);
            p2 (1701.0 2205.0 90.0);
            radius 75.6;
        }
    }
    // actuationDisk36CellSet
    {
        name    actuationDisk36CellSet;
        type    cellSet;
        action  new;
        source  cylinderToCell;
        sourceInfo
        {
            p1 (1533.0 2835.0 90.0);
            p2 (1701.0 2835.0 90.0);
            radius 75.6;
        }
    }
    {
        name    actuationDisk36;
        type    cellZoneSet;
        action  new;
        source  setToCellZone;
        sourceInfo
        {
            set actuationDisk36CellSet;
        }
    }
    {
        name    refineSection;
        type    cellSet;
        action  add;
        source  cylinderToCell;
        sourceInfo
        {
            p1 (1533.0 2835.0 90.0);
            p2 (1701.0 2835.0 90.0);
            radius 75.6;
        }
    }
    // actuationDisk37CellSet
    {
        name    actuationDisk37CellSet;
        type    cellSet;
        action  new;
        source  cylinderToCell;
        sourceInfo
        {
            p1 (1533.0 3465.0 90.0);
            p2 (1701.0 3465.0 90.0);
            radius 75.6;
        }
    }
    {
        name    actuationDisk37;
        type    cellZoneSet;
        action  new;
        source  setToCellZone;
        sourceInfo
        {
            set actuationDisk37CellSet;
        }
    }
    {
        name    refineSection;
        type    cellSet;
        action  add;
        source  cylinderToCell;
        sourceInfo
        {
            p1 (1533.0 3465.0 90.0);
            p2 (1701.0 3465.0 90.0);
            radius 75.6;
        }
    }
    // actuationDisk38CellSet
    {