/*--------------------------------*- C++ -*----------------------------------*\
| =========                 |                                                 |
| \\      /  F ield         | OpenFOAM: The Open Source CFD Toolbox           |
|  \\    /   O peration     | Version:  v2406                                 |
|   \\  /    A nd           | Website:  www.openfoam.com                      |
|    \\/     M anipulation  |                                                 |
\*---------------------------------------------------------------------------*/
FoamFile
{
    version     2.0;
    format      ascii;
    class       volScalarField;
    object      epsilon;
}
// * * * * * * * * * * * * * * * * * * * * * * * * * * * * * * * * * * * * * //

#include        "include/initialConditions"

dimensions      [0 2 -3 0 0 0 0];

internalField   uniform $turbulentEpsilon;

boundaryField
{
    outlet
    {
        type            inletOutlet;
        inletValue      uniform $turbulentEpsilon;
        value           $internalField;
    }

    inlet
    {
        type            uniformFixedValue;
        uniformValue    constant $turbulentEpsilon;
    }

    terrain
    {
        type            slip;
    }

    ground
    {
        type            slip;
    }

    #include "include/sideAndTopPatches"
}


// ************************************************************************* //
