/*--------------------------------*- C++ -*----------------------------------*\
| =========                 |                                                 |
| \\      /  F ield         | OpenFOAM: The Open Source CFD Toolbox           |
|  \\    /   O peration     | Version:  v2406                                 |
|   \\  /    A nd           | Website:  www.openfoam.com                      |
|    \\/     M anipulation  |                                                 |
\*---------------------------------------------------------------------------*/
FoamFile
{
    version     2.0;
    format      ascii;
    class       volScalarField;
    object      k;
}
// * * * * * * * * * * * * * * * * * * * * * * * * * * * * * * * * * * * * * //

#include        "include/initialConditions"

dimensions      [0 2 -2 0 0 0 0];

internalField   uniform $turbulentKE;

boundaryField
{
    outlet
    {
        type            inletOutlet;
        inletValue      uniform $turbulentKE;
        value           $internalField;
    }

    inlet
    {
        type            turbulentIntensityKineticEnergyInlet;
        intensity       $TI;       // % turbulent intensity
        value           $internalField;
    }

    terrain
    {
        type            slip;
    }

    ground
    {
        type            slip;
    }

    #include "include/sideAndTopPatches"
}


// ************************************************************************* //
